4
 energy: -3.562970367402 gnorm: 0.000005400095 xtb: 6.5.1 (0c6ad46)
C           -0.00000000000695       -0.00000000019588       -0.00000000000050
H            0.53372206029286        0.92443372586939        0.00000000000017
H            0.53372206076398       -0.92443372601080        0.00000000000017
H           -1.06744412104989        0.00000000033729        0.00000000000017
