12
 energy: -15.879640596173 gnorm: 0.000238534917 xtb: 6.5.1 (9a6b163)
C            1.06871136389962       -0.46494512931234        0.00009588219627
C            2.45340846791841       -0.46500928319743        0.00042148349682
C            3.14579033432656        0.73409166673713        0.00008937655534
C            2.45350112247069        1.93331079730476       -0.00086121486210
C            1.06885815141989        1.93337619439084       -0.00141344240295
C            0.37644921065143        0.73422875164498       -0.00090898571260
H            0.52847625453996       -1.40064116165295        0.00049366464146
H            2.99354551501014       -1.40076377909261        0.00121576086281
H            4.22624551088560        0.73408784508361        0.00025345832615
H            2.99382585337463        2.86895589037058       -0.00166315140803
H            0.52863191846200        2.86907974160948       -0.00225008271864
H           -0.70400558295892        0.73433122611394       -0.00138374897452
